/*--------------------------------*- C++ -*----------------------------------*\
  =========                 |
  \\      /  F ield         | OpenFOAM: The Open Source CFD Toolbox
   \\    /   O peration     | Website:  https://openfoam.org
    \\  /    A nd           | Version:  7
     \\/     M anipulation  |
\*---------------------------------------------------------------------------*/
FoamFile
{
    version     2.0;
    format      ascii;
    class       volScalarField;
    location    "0";
    object      p_rgh;
}
// * * * * * * * * * * * * * * * * * * * * * * * * * * * * * * * * * * * * * //

dimensions      [1 -1 -2 0 0 0 0];

internalField   uniform 0;

boundaryField
{
    top
    {
        type            fixedFluxPressure;
        gradient        uniform 0;
        value           uniform 0;
    }
    bottom
    {
        type            zeroGradient;
    }
    sideRight
    {
        type            cyclic;
    }
    sideLeft
    {
        type            cyclic;
    }
    frontback
    {
        type            empty;
    }
}


// ************************************************************************* //
