/*--------------------------------*- C++ -*----------------------------------*\
| =========                 |                                                 |
| \\      /  F ield         | OpenFOAM: The Open Source CFD Toolbox           |
|  \\    /   O peration     | Version:  2012                                  |
|   \\  /    A nd           | Website:  www.openfoam.com                      |
|    \\/     M anipulation  |                                                 |
\*---------------------------------------------------------------------------*/
FoamFile
{
    version     2.0;
    format      ascii;
    class       polyBoundaryMesh;
    location    "constant/polyMesh";
    object      boundary;
}
// * * * * * * * * * * * * * * * * * * * * * * * * * * * * * * * * * * * * * //

5
(
    top
    {
        type            patch;
        nFaces          321;
        startFace       205440;
    }
    bottom
    {
        type            patch;
        nFaces          321;
        startFace       205761;
    }
    sideRight
    {
        type            cyclic;
        inGroups        1(cyclic);
        nFaces          321;
        startFace       206082;
        matchTolerance  0.0001;
        transform       unknown;
        neighbourPatch  sideLeft;
    }
    sideLeft
    {
        type            cyclic;
        inGroups        1(cyclic);
        nFaces          321;
        startFace       206403;
        matchTolerance  0.0001;
        transform       unknown;
        neighbourPatch  sideRight;
    }
    frontback
    {
        type            empty;
        inGroups        1(empty);
        nFaces          206082;
        startFace       206724;
    }
)

// ************************************************************************* //
